Version 4
SHEET 1 1108 680
WIRE 80 -336 80 -368
WIRE -80 -304 -80 -336
WIRE 0 -304 -80 -304
WIRE 192 -288 160 -288
WIRE 224 -288 192 -288
WIRE 352 -288 288 -288
WIRE -448 -272 -464 -272
WIRE -368 -272 -448 -272
WIRE -240 -272 -304 -272
WIRE -16 -272 -160 -272
WIRE 0 -272 -16 -272
WIRE 80 -208 80 -256
WIRE -16 -112 -16 -272
WIRE 48 -112 -16 -112
WIRE 192 -112 192 -288
WIRE 192 -112 128 -112
WIRE 304 -112 192 -112
WIRE 304 48 304 -112
WIRE 752 80 752 48
WIRE 880 80 880 48
WIRE 1024 80 1024 48
WIRE -16 128 -16 -112
WIRE 96 128 64 128
WIRE 112 128 96 128
WIRE 304 128 192 128
WIRE 96 192 96 128
WIRE 752 208 752 160
WIRE 880 208 880 160
WIRE 1024 208 1024 160
WIRE 48 320 32 320
WIRE 96 384 96 352
WIRE 32 480 32 320
FLAG 880 208 0
FLAG 1024 208 0
FLAG 752 208 0
FLAG 880 48 Vcc
FLAG 1024 48 Vee
FLAG 752 48 in
FLAG 80 -368 Vcc
FLAG 80 -208 Vee
FLAG -448 -272 in
FLAG -80 -336 0
FLAG 352 -288 out
FLAG 96 384 0
FLAG 96 192 a
FLAG 32 560 0
SYMBOL res -144 -288 R90
WINDOW 0 0 56 VBottom 2
WINDOW 3 32 56 VTop 2
SYMATTR InstName R1
SYMATTR Value 3Meg
SYMBOL res 32 -96 R270
WINDOW 0 32 56 VTop 2
WINDOW 3 0 56 VBottom 2
SYMATTR InstName R2
SYMATTR Value 3Meg
SYMBOL AutoGenerated\\LMX58B_LM2904B 64 -288 R0
WINDOW 3 7 -157 Top 2
SYMATTR InstName U1
SYMBOL voltage 880 64 R0
WINDOW 123 0 0 Left 0
WINDOW 39 0 0 Left 0
SYMATTR InstName V1
SYMATTR Value 12V
SYMBOL voltage 1024 64 R0
WINDOW 123 0 0 Left 0
WINDOW 39 0 0 Left 0
SYMATTR InstName V2
SYMATTR Value -12V
SYMBOL voltage 752 64 R0
WINDOW 3 -76 187 Left 2
WINDOW 123 -69 98 Left 2
WINDOW 39 0 0 Left 0
SYMATTR Value PULSE(0 1 0 10n 10n 0.5m 1m 100)
SYMATTR Value2 AC 1
SYMATTR InstName V3
SYMBOL cap -304 -288 R90
WINDOW 0 0 32 VBottom 2
WINDOW 3 32 32 VTop 2
SYMATTR InstName C3
SYMATTR Value 0.1µ
SYMBOL res 288 32 R0
SYMATTR InstName R5
SYMATTR Value 100
SYMBOL cap 288 -304 R90
WINDOW 0 0 32 VBottom 2
WINDOW 3 32 32 VTop 2
SYMATTR InstName C4
SYMATTR Value 1µ
SYMBOL njf 48 256 R0
SYMATTR InstName J1
SYMBOL voltage 32 464 R0
WINDOW 3 24 44 Left 2
WINDOW 123 0 0 Left 0
WINDOW 39 0 0 Left 0
SYMATTR Value {V}
SYMATTR InstName V4
SYMBOL res 80 112 R90
WINDOW 0 0 56 VBottom 2
WINDOW 3 32 56 VTop 2
SYMATTR InstName R3
SYMATTR Value 1.5Meg
SYMBOL res 208 112 R90
WINDOW 0 0 56 VBottom 2
WINDOW 3 32 56 VTop 2
SYMATTR InstName R4
SYMATTR Value 1.5Meg
SYMBOL cap 80 192 R0
SYMATTR InstName C5
SYMATTR Value 2.2n
TEXT 88 576 Left 2 !.step lin param V -2 1 0.1
TEXT -474 596 Left 2 !;ac dec 1000 10 100k
TEXT -456 560 Left 2 !.tran 0 40m 0 10u
