Version 4
SHEET 1 3552 960
WIRE -512 -144 -512 -176
WIRE -672 -112 -672 -144
WIRE -592 -112 -672 -112
WIRE -400 -96 -432 -96
WIRE -368 -96 -400 -96
WIRE -240 -96 -304 -96
WIRE -1040 -80 -1056 -80
WIRE -960 -80 -1040 -80
WIRE -832 -80 -896 -80
WIRE -608 -80 -752 -80
WIRE -592 -80 -608 -80
WIRE -512 -16 -512 -64
WIRE -1712 48 -1712 32
WIRE -608 80 -608 -80
WIRE -544 80 -608 80
WIRE -400 80 -400 -96
WIRE -400 80 -464 80
WIRE -288 80 -400 80
WIRE -1712 144 -1712 128
WIRE -1360 144 -1712 144
WIRE -1248 144 -1280 144
WIRE -1712 160 -1712 144
WIRE -608 224 -608 80
WIRE -496 224 -528 224
WIRE -480 224 -496 224
WIRE -1424 240 -1504 240
WIRE -1360 240 -1424 240
WIRE -1248 240 -1248 144
WIRE -1248 240 -1280 240
WIRE -288 240 -288 80
WIRE -1712 256 -1712 240
WIRE -1504 272 -1504 240
WIRE 160 272 160 240
WIRE 288 272 288 240
WIRE 432 272 432 240
WIRE -608 320 -608 224
WIRE -496 320 -496 224
WIRE -496 320 -544 320
WIRE -464 320 -496 320
WIRE -400 320 -400 224
WIRE -288 320 -400 320
WIRE -1424 352 -1440 352
WIRE -1360 352 -1424 352
WIRE -1248 352 -1248 240
WIRE -1248 352 -1280 352
WIRE -1024 352 -1248 352
WIRE -1504 384 -1504 352
WIRE -496 384 -496 320
WIRE 160 400 160 352
WIRE 288 400 288 352
WIRE 432 400 432 352
WIRE -496 448 -496 384
WIRE -816 464 -816 384
WIRE -496 464 -496 448
WIRE -1216 496 -1264 496
WIRE -1024 496 -1024 352
WIRE -1024 496 -1136 496
WIRE -896 496 -1024 496
WIRE -704 512 -736 512
WIRE -672 512 -704 512
WIRE -544 512 -592 512
WIRE -896 528 -1024 528
WIRE -1456 576 -1456 544
WIRE -1424 576 -1456 576
WIRE -1280 576 -1344 576
WIRE -816 576 -816 544
WIRE -496 576 -496 544
WIRE -1280 672 -1280 656
WIRE -1216 672 -1280 672
WIRE -1024 672 -1024 528
WIRE -1024 672 -1136 672
WIRE -864 672 -1024 672
WIRE -704 672 -704 512
WIRE -704 672 -784 672
WIRE -1280 688 -1280 672
WIRE -1424 768 -1456 768
WIRE -1280 768 -1344 768
WIRE -1456 800 -1456 768
FLAG 288 400 0
FLAG 432 400 0
FLAG 160 400 0
FLAG 288 240 Vcc
FLAG 432 240 Vee
FLAG 160 240 in
FLAG -512 -176 Vcc
FLAG -512 -16 Vee
FLAG -1040 -80 in
FLAG -672 -144 0
FLAG -240 -96 out
FLAG -496 576 0
FLAG -1456 544 Vcc
FLAG -1456 800 0
FLAG -1264 496 0
FLAG -1424 240 CV1
FLAG -1424 352 CV2
FLAG -1712 32 Vcc
FLAG -1712 256 Vee
FLAG -816 576 Vee
FLAG -816 384 Vcc
FLAG -496 384 a
FLAG -1504 384 0
SYMBOL res -736 -96 R90
WINDOW 0 0 56 VBottom 2
WINDOW 3 32 56 VTop 2
SYMATTR InstName R2
SYMATTR Value 10Meg
SYMBOL res -560 96 R270
WINDOW 0 32 56 VTop 2
WINDOW 3 0 56 VBottom 2
SYMATTR InstName R3
SYMATTR Value 3Meg
SYMBOL AutoGenerated\\LMX58B_LM2904B -528 -96 R0
WINDOW 3 7 -157 Top 2
SYMATTR InstName U1
SYMBOL voltage 288 256 R0
WINDOW 123 0 0 Left 0
WINDOW 39 0 0 Left 0
SYMATTR InstName V1
SYMATTR Value 12V
SYMBOL voltage 432 256 R0
WINDOW 123 0 0 Left 0
WINDOW 39 0 0 Left 0
SYMATTR InstName V2
SYMATTR Value -12V
SYMBOL voltage 160 256 R0
WINDOW 3 -76 187 Left 2
WINDOW 123 -69 98 Left 2
WINDOW 39 0 0 Left 0
SYMATTR Value PULSE(0 1 0 10n 10n 5m 10m 100)
SYMATTR Value2 AC 1
SYMATTR InstName V3
SYMBOL res -512 208 R90
WINDOW 0 0 56 VBottom 2
WINDOW 3 32 56 VTop 2
SYMATTR InstName R4
SYMATTR Value 1Meg
SYMBOL res -384 208 R90
WINDOW 0 0 56 VBottom 2
WINDOW 3 32 56 VTop 2
SYMATTR InstName R5
SYMATTR Value 1Meg
SYMBOL cap -544 304 R90
WINDOW 0 0 32 VBottom 2
WINDOW 3 32 32 VTop 2
SYMATTR InstName C2
SYMATTR Value 4.7n
SYMBOL cap -400 304 R90
WINDOW 0 0 32 VBottom 2
WINDOW 3 32 32 VTop 2
SYMATTR InstName C3
SYMATTR Value 4.7n
SYMBOL cap -896 -96 R90
WINDOW 0 0 32 VBottom 2
WINDOW 3 32 32 VTop 2
SYMATTR InstName C1
SYMATTR Value 0.1µ
SYMBOL res -304 224 R0
SYMATTR InstName R1
SYMATTR Value 100k
SYMBOL cap -304 -112 R90
WINDOW 0 0 32 VBottom 2
WINDOW 3 32 32 VTop 2
SYMATTR InstName C4
SYMATTR Value 0.1µ
SYMBOL res -576 496 R90
WINDOW 0 0 56 VBottom 2
WINDOW 3 32 56 VTop 2
SYMATTR InstName R6
SYMATTR Value 100k
SYMBOL AutoGenerated\\LMX58B_LM2904B -832 512 R0
WINDOW 3 156 -90 Top 2
SYMATTR InstName U2
SYMBOL res -768 656 R90
WINDOW 0 0 56 VBottom 2
WINDOW 3 32 56 VTop 2
SYMATTR InstName R7
SYMATTR Value 100k
SYMBOL res -1120 480 R90
WINDOW 0 0 56 VBottom 2
WINDOW 3 32 56 VTop 2
SYMATTR InstName R8
SYMATTR Value 1k
SYMBOL res -1120 656 R90
WINDOW 0 0 56 VBottom 2
WINDOW 3 32 56 VTop 2
SYMATTR InstName R9
SYMATTR Value 10k
SYMBOL res -1328 560 R90
WINDOW 0 0 56 VBottom 2
WINDOW 3 32 56 VTop 2
SYMATTR InstName R10
SYMATTR Value 100k
SYMBOL res -1328 752 R90
WINDOW 0 0 56 VBottom 2
WINDOW 3 32 56 VTop 2
SYMATTR InstName R11
SYMATTR Value 1k
SYMBOL res -1264 128 R90
WINDOW 0 0 56 VBottom 2
WINDOW 3 32 56 VTop 2
SYMATTR InstName R12
SYMATTR Value 150k
SYMBOL res -1264 224 R90
WINDOW 0 0 56 VBottom 2
WINDOW 3 32 56 VTop 2
SYMATTR InstName R13
SYMATTR Value 100k
SYMBOL res -1264 336 R90
WINDOW 0 0 56 VBottom 2
WINDOW 3 32 56 VTop 2
SYMATTR InstName R14
SYMATTR Value 100k
SYMBOL res -1728 32 R0
SYMATTR InstName R15
SYMATTR Value 50k
SYMBOL res -1728 144 R0
SYMATTR InstName R16
SYMATTR Value 50k
SYMBOL res -1296 672 R0
SYMATTR InstName R17
SYMATTR Value 100
SYMBOL res -1296 560 R0
SYMATTR InstName R18
SYMATTR Value 9.9k
SYMBOL voltage -1504 256 R0
WINDOW 3 24 44 Left 2
WINDOW 123 0 0 Left 0
WINDOW 39 0 0 Left 0
SYMATTR Value {V}
SYMATTR InstName V5
SYMBOL njf -544 448 R0
SYMATTR InstName J2
SYMATTR Value J113
TEXT -1488 -200 Left 2 !.ac dec 1000 10 100k
TEXT -1480 -152 Left 2 !;.tran 0 40m 0 10u
TEXT -1752 432 Left 2 !.step param V -2.5 2.5 0.2
TEXT -2136 856 Left 2 !.MODEL PN4391 NJF(Beta=3.084m Betatce=-500m Rd=1 Rs=1 Lambda=17.5m Vto=-5.27 Vtotc=-2.5m Is=205.2f Isr=1.988p N=1 Nr=2 Xti=3 Alpha=20.98u Vk=123.7 Cgd=5.35p M=406.9m Pb=1 Fc=500m Cgs=4.76p Kf=4.023e-002f Af=1)
TEXT -2024 280 Left 2 !;.step param R 0.1 100k 5k
TEXT -2136 896 Left 2 !.MODEL J113 NJF(VTO=-1.2854 BETA=9.25964m BETATCE=-0.5 LAMBDA=3.03839E-2 RD=1.30170 RS=1.30170 CGS=1.05000E-11 CGD=1.20000E-11 PB=5.04493E-1 IS=9.86870E-16 XTI=3 AF=1 FC=0.5 N=1 NR=2 MFG=PHILIPS)
