Version 4
SHEET 1 892 912
WIRE -208 -96 -208 -128
WIRE -368 -64 -368 -96
WIRE -288 -64 -368 -64
WIRE -96 -48 -128 -48
WIRE -64 -48 -96 -48
WIRE 64 -48 0 -48
WIRE -736 -32 -752 -32
WIRE -656 -32 -736 -32
WIRE -528 -32 -592 -32
WIRE -304 -32 -448 -32
WIRE -288 -32 -304 -32
WIRE -208 32 -208 -16
WIRE -1408 96 -1408 80
WIRE -304 128 -304 -32
WIRE -240 128 -304 128
WIRE -96 128 -96 -48
WIRE -96 128 -160 128
WIRE 16 128 -96 128
WIRE -1408 192 -1408 176
WIRE -1056 192 -1408 192
WIRE -944 192 -976 192
WIRE -1408 208 -1408 192
WIRE -304 272 -304 128
WIRE -192 272 -224 272
WIRE -176 272 -192 272
WIRE -1120 288 -1200 288
WIRE -1056 288 -1120 288
WIRE -944 288 -944 192
WIRE -944 288 -976 288
WIRE 16 288 16 128
WIRE -1408 304 -1408 288
WIRE 464 320 464 288
WIRE 592 320 592 288
WIRE 736 320 736 288
WIRE -304 368 -304 272
WIRE -192 368 -192 272
WIRE -192 368 -240 368
WIRE -160 368 -192 368
WIRE -96 368 -96 272
WIRE 16 368 -96 368
WIRE -1120 400 -1136 400
WIRE -1056 400 -1120 400
WIRE -944 400 -944 288
WIRE -944 400 -976 400
WIRE -720 400 -944 400
WIRE -1200 432 -1200 400
WIRE -192 432 -192 368
WIRE 464 448 464 400
WIRE 592 448 592 400
WIRE 736 448 736 400
WIRE -192 496 -192 432
WIRE -512 512 -512 432
WIRE -912 544 -960 544
WIRE -720 544 -720 400
WIRE -720 544 -832 544
WIRE -592 544 -720 544
WIRE -400 560 -432 560
WIRE -368 560 -400 560
WIRE -240 560 -288 560
WIRE -592 576 -720 576
WIRE -1152 624 -1152 592
WIRE -1120 624 -1152 624
WIRE -976 624 -1040 624
WIRE -512 624 -512 592
WIRE -192 624 -192 592
WIRE -976 720 -976 704
WIRE -912 720 -976 720
WIRE -720 720 -720 576
WIRE -720 720 -832 720
WIRE -560 720 -720 720
WIRE -400 720 -400 560
WIRE -400 720 -480 720
WIRE -976 736 -976 720
WIRE -1120 816 -1152 816
WIRE -976 816 -1040 816
WIRE -1152 848 -1152 816
FLAG 592 448 0
FLAG 736 448 0
FLAG 464 448 0
FLAG 592 288 Vcc
FLAG 736 288 Vee
FLAG 464 288 in
FLAG -208 -128 Vcc
FLAG -208 32 Vee
FLAG -736 -32 in
FLAG -368 -96 0
FLAG 64 -48 out
FLAG -192 624 0
FLAG -1152 592 Vcc
FLAG -1152 848 0
FLAG -960 544 0
FLAG -1120 288 CV1
FLAG -1120 400 CV2
FLAG -1408 80 Vcc
FLAG -1408 304 Vee
FLAG -512 624 Vee
FLAG -512 432 Vcc
FLAG -192 432 a
FLAG -256 800 0
FLAG -1200 432 0
SYMBOL res -432 -48 R90
WINDOW 0 0 56 VBottom 2
WINDOW 3 32 56 VTop 2
SYMATTR InstName R2
SYMATTR Value 3Meg
SYMBOL res -256 144 R270
WINDOW 0 32 56 VTop 2
WINDOW 3 0 56 VBottom 2
SYMATTR InstName R3
SYMATTR Value 3Meg
SYMBOL AutoGenerated\\LMX58B_LM2904B -224 -48 R0
WINDOW 3 7 -157 Top 2
SYMATTR InstName U1
SYMBOL voltage 592 304 R0
WINDOW 123 0 0 Left 0
WINDOW 39 0 0 Left 0
SYMATTR InstName V1
SYMATTR Value 12V
SYMBOL voltage 736 304 R0
WINDOW 123 0 0 Left 0
WINDOW 39 0 0 Left 0
SYMATTR InstName V2
SYMATTR Value -12V
SYMBOL voltage 464 304 R0
WINDOW 3 -76 187 Left 2
WINDOW 123 -69 98 Left 2
WINDOW 39 0 0 Left 0
SYMATTR Value PULSE(0 1 0 10n 10n 5m 10m 100)
SYMATTR Value2 AC 1
SYMATTR InstName V3
SYMBOL res -208 256 R90
WINDOW 0 0 56 VBottom 2
WINDOW 3 32 56 VTop 2
SYMATTR InstName R4
SYMATTR Value 1.5Meg
SYMBOL res -80 256 R90
WINDOW 0 0 56 VBottom 2
WINDOW 3 32 56 VTop 2
SYMATTR InstName R5
SYMATTR Value 1.5Meg
SYMBOL cap -240 352 R90
WINDOW 0 0 32 VBottom 2
WINDOW 3 32 32 VTop 2
SYMATTR InstName C2
SYMATTR Value 2.2n
SYMBOL cap -96 352 R90
WINDOW 0 0 32 VBottom 2
WINDOW 3 32 32 VTop 2
SYMATTR InstName C3
SYMATTR Value 2.2n
SYMBOL cap -592 -48 R90
WINDOW 0 0 32 VBottom 2
WINDOW 3 32 32 VTop 2
SYMATTR InstName C1
SYMATTR Value 0.1µ
SYMBOL res 0 272 R0
SYMATTR InstName R1
SYMATTR Value 100k
SYMBOL cap 0 -64 R90
WINDOW 0 0 32 VBottom 2
WINDOW 3 32 32 VTop 2
SYMATTR InstName C4
SYMATTR Value 1µ
SYMBOL njf -240 496 R0
SYMATTR InstName J1
SYMBOL res -272 544 R90
WINDOW 0 0 56 VBottom 2
WINDOW 3 32 56 VTop 2
SYMATTR InstName R6
SYMATTR Value 100k
SYMBOL AutoGenerated\\LMX58B_LM2904B -528 560 R0
WINDOW 3 156 -90 Top 2
SYMATTR InstName U2
SYMBOL res -464 704 R90
WINDOW 0 0 56 VBottom 2
WINDOW 3 32 56 VTop 2
SYMATTR InstName R7
SYMATTR Value 200k
SYMBOL res -816 528 R90
WINDOW 0 0 56 VBottom 2
WINDOW 3 32 56 VTop 2
SYMATTR InstName R8
SYMATTR Value 1k
SYMBOL res -816 704 R90
WINDOW 0 0 56 VBottom 2
WINDOW 3 32 56 VTop 2
SYMATTR InstName R9
SYMATTR Value 10k
SYMBOL res -1024 608 R90
WINDOW 0 0 56 VBottom 2
WINDOW 3 32 56 VTop 2
SYMATTR InstName R10
SYMATTR Value 150k
SYMBOL res -1024 800 R90
WINDOW 0 0 56 VBottom 2
WINDOW 3 32 56 VTop 2
SYMATTR InstName R11
SYMATTR Value 500
SYMBOL res -960 176 R90
WINDOW 0 0 56 VBottom 2
WINDOW 3 32 56 VTop 2
SYMATTR InstName R12
SYMATTR Value 150k
SYMBOL res -960 272 R90
WINDOW 0 0 56 VBottom 2
WINDOW 3 32 56 VTop 2
SYMATTR InstName R13
SYMATTR Value 100k
SYMBOL res -960 384 R90
WINDOW 0 0 56 VBottom 2
WINDOW 3 32 56 VTop 2
SYMATTR InstName R14
SYMATTR Value 100k
SYMBOL res -1424 80 R0
SYMATTR InstName R15
SYMATTR Value 70k
SYMBOL res -1424 192 R0
SYMATTR InstName R16
SYMATTR Value 30k
SYMBOL res -992 720 R0
SYMATTR InstName R17
SYMATTR Value 500
SYMBOL res -992 608 R0
SYMATTR InstName R18
SYMATTR Value 9.5k
SYMBOL voltage -256 704 R0
WINDOW 3 24 44 Left 2
WINDOW 123 0 0 Left 0
WINDOW 39 0 0 Left 0
SYMATTR Value {V}
SYMATTR InstName V4
SYMBOL voltage -1200 304 R0
WINDOW 3 24 44 Left 2
WINDOW 123 0 0 Left 0
WINDOW 39 0 0 Left 0
SYMATTR Value {V}
SYMATTR InstName V5
TEXT -1184 -152 Left 2 !.ac dec 1000 10 100k
TEXT -1176 -104 Left 2 !;tran 0 40m 0 10u
TEXT -200 816 Left 2 !;step lin param V -2 1 0.1
TEXT -1448 480 Left 2 !;.step lin param V -9 9 0.2
