Version 4
SHEET 1 2616 1040
WIRE 2256 -224 2016 -224
WIRE 2464 -224 2336 -224
WIRE 2288 -32 2288 -64
WIRE 1232 -16 1232 -48
WIRE 1904 0 1856 0
WIRE 2016 0 2016 -224
WIRE 2016 0 1968 0
WIRE 2048 0 2016 0
WIRE 2128 0 2112 0
WIRE 2208 0 2128 0
WIRE 1072 16 1072 -16
WIRE 1152 16 1072 16
WIRE 2384 16 2368 16
WIRE 2464 16 2464 -224
WIRE 2464 16 2384 16
WIRE 2560 16 2464 16
WIRE 1344 32 1312 32
WIRE 1856 32 1856 0
WIRE 1856 32 1344 32
WIRE 2208 32 2192 32
WIRE 704 48 688 48
WIRE 784 48 704 48
WIRE 912 48 848 48
WIRE 1136 48 992 48
WIRE 1152 48 1136 48
WIRE 2128 64 2128 0
WIRE 2288 96 2288 48
WIRE 1232 112 1232 64
WIRE 2192 144 2192 32
WIRE 2384 144 2384 16
WIRE 2384 144 2192 144
WIRE 32 176 32 160
WIRE 1136 208 1136 48
WIRE 1200 208 1136 208
WIRE 1344 208 1344 32
WIRE 1344 208 1280 208
WIRE 1456 208 1344 208
WIRE 2128 208 2128 144
WIRE 32 272 32 256
WIRE 384 272 32 272
WIRE 496 272 464 272
WIRE 32 288 32 272
WIRE 1136 352 1136 208
WIRE 1248 352 1216 352
WIRE 1264 352 1248 352
WIRE 1456 368 1456 208
WIRE 32 384 32 368
WIRE 1136 448 1136 352
WIRE 1248 448 1248 352
WIRE 1248 448 1200 448
WIRE 1280 448 1248 448
WIRE 1344 448 1344 352
WIRE 1456 448 1344 448
WIRE 496 480 496 272
WIRE 720 480 496 480
WIRE 1248 512 1248 448
WIRE 1248 576 1248 512
WIRE 928 592 928 512
WIRE 1248 592 1248 576
WIRE 528 624 480 624
WIRE 720 624 720 480
WIRE 720 624 608 624
WIRE 848 624 720 624
WIRE 1040 640 1008 640
WIRE 1072 640 1040 640
WIRE 1200 640 1152 640
WIRE 848 656 720 656
WIRE -592 688 -592 656
WIRE -464 688 -464 656
WIRE -320 688 -320 656
WIRE 288 704 288 672
WIRE 320 704 288 704
WIRE 464 704 400 704
WIRE 928 704 928 672
WIRE 1248 704 1248 672
WIRE 464 800 464 784
WIRE 528 800 464 800
WIRE 720 800 720 656
WIRE 720 800 608 800
WIRE 880 800 720 800
WIRE 1040 800 1040 640
WIRE 1040 800 960 800
WIRE -592 816 -592 768
WIRE -464 816 -464 768
WIRE -320 816 -320 768
WIRE 464 816 464 800
WIRE 320 896 288 896
WIRE 464 896 400 896
WIRE 288 928 288 896
FLAG -464 816 0
FLAG -320 816 0
FLAG -592 816 0
FLAG -464 656 Vcc
FLAG -320 656 Vee
FLAG -592 656 in
FLAG 1232 -48 Vcc
FLAG 1232 112 Vee
FLAG 704 48 in
FLAG 1072 -16 0
FLAG 1248 704 0
FLAG 288 672 Vcc
FLAG 288 928 0
FLAG 480 624 0
FLAG 32 160 Vcc
FLAG 32 384 Vee
FLAG 928 704 Vee
FLAG 928 512 Vcc
FLAG 1248 512 a
FLAG 2288 -64 Vcc
FLAG 2288 96 Vee
FLAG 2560 16 out
FLAG 2128 208 0
SYMBOL res 1008 32 R90
WINDOW 0 0 56 VBottom 2
WINDOW 3 32 56 VTop 2
SYMATTR InstName R1
SYMATTR Value 9Meg
SYMBOL res 1184 224 R270
WINDOW 0 32 56 VTop 2
WINDOW 3 0 56 VBottom 2
SYMATTR InstName R2
SYMATTR Value 3Meg
SYMBOL AutoGenerated\\LMX58B_LM2904B 1216 32 R0
WINDOW 3 7 -157 Top 2
SYMATTR InstName U1
SYMBOL voltage -464 672 R0
WINDOW 123 0 0 Left 0
WINDOW 39 0 0 Left 0
SYMATTR InstName V1
SYMATTR Value 12V
SYMBOL voltage -320 672 R0
WINDOW 123 0 0 Left 0
WINDOW 39 0 0 Left 0
SYMATTR InstName V2
SYMATTR Value -12V
SYMBOL voltage -592 672 R0
WINDOW 3 -76 187 Left 2
WINDOW 123 -69 98 Left 2
WINDOW 39 0 0 Left 0
SYMATTR Value PULSE(0 1 0 10n 10n 5m 10m 100)
SYMATTR Value2 AC 1
SYMATTR InstName V3
SYMBOL res 1232 336 R90
WINDOW 0 0 56 VBottom 2
WINDOW 3 32 56 VTop 2
SYMATTR InstName R3
SYMATTR Value 1Meg
SYMBOL res 1360 336 R90
WINDOW 0 0 56 VBottom 2
WINDOW 3 32 56 VTop 2
SYMATTR InstName R4
SYMATTR Value 1Meg
SYMBOL cap 1200 432 R90
WINDOW 0 0 32 VBottom 2
WINDOW 3 32 32 VTop 2
SYMATTR InstName C1
SYMATTR Value 4.7n
SYMBOL cap 1344 432 R90
WINDOW 0 0 32 VBottom 2
WINDOW 3 32 32 VTop 2
SYMATTR InstName C2
SYMATTR Value 4.7n
SYMBOL cap 848 32 R90
WINDOW 0 0 32 VBottom 2
WINDOW 3 32 32 VTop 2
SYMATTR InstName C3
SYMATTR Value 0.1µ
SYMBOL res 1440 352 R0
SYMATTR InstName R5
SYMATTR Value 100
SYMBOL res 1168 624 R90
WINDOW 0 0 56 VBottom 2
WINDOW 3 32 56 VTop 2
SYMATTR InstName R6
SYMATTR Value 100k
SYMBOL AutoGenerated\\LMX58B_LM2904B 912 640 R0
WINDOW 3 156 -90 Top 2
SYMATTR InstName U2
SYMBOL res 976 784 R90
WINDOW 0 0 56 VBottom 2
WINDOW 3 32 56 VTop 2
SYMATTR InstName R7
SYMATTR Value 100k
SYMBOL res 624 608 R90
WINDOW 0 0 56 VBottom 2
WINDOW 3 32 56 VTop 2
SYMATTR InstName R8
SYMATTR Value 1k
SYMBOL res 624 784 R90
WINDOW 0 0 56 VBottom 2
WINDOW 3 32 56 VTop 2
SYMATTR InstName R9
SYMATTR Value 10k
SYMBOL res 416 688 R90
WINDOW 0 0 56 VBottom 2
WINDOW 3 32 56 VTop 2
SYMATTR InstName R10
SYMATTR Value 100k
SYMBOL res 416 880 R90
WINDOW 0 0 56 VBottom 2
WINDOW 3 32 56 VTop 2
SYMATTR InstName R11
SYMATTR Value 1k
SYMBOL res 480 256 R90
WINDOW 0 0 56 VBottom 2
WINDOW 3 32 56 VTop 2
SYMATTR InstName R12
SYMATTR Value 150k
SYMBOL res 16 160 R0
SYMATTR InstName R15
SYMATTR Value {R}
SYMBOL res 16 272 R0
SYMATTR InstName R16
SYMATTR Value 50k
SYMBOL res 448 800 R0
SYMATTR InstName R17
SYMATTR Value 100
SYMBOL res 448 688 R0
SYMATTR InstName R18
SYMATTR Value 9.9k
SYMBOL njf 1200 576 R0
SYMATTR InstName J1
SYMATTR Value J113
SYMBOL AutoGenerated\\LMX58B_LM2904B 2272 16 R0
WINDOW 3 7 -157 Top 2
SYMATTR InstName U3
SYMBOL cap 1968 -16 R90
WINDOW 0 0 32 VBottom 2
WINDOW 3 32 32 VTop 2
SYMATTR InstName C5
SYMATTR Value 4.7n
SYMBOL cap 2112 -16 R90
WINDOW 0 0 32 VBottom 2
WINDOW 3 32 32 VTop 2
SYMATTR InstName C7
SYMATTR Value 4.7n
SYMBOL res 2352 -240 R90
WINDOW 0 0 56 VBottom 2
WINDOW 3 32 56 VTop 2
SYMATTR InstName R14
SYMATTR Value {R}
SYMBOL res 2112 48 R0
SYMATTR InstName R13
SYMATTR Value {R}
TEXT 256 -72 Left 2 !.ac dec 1000 10 100k
TEXT 264 -24 Left 2 !;.tran 0 40m 0 10u
TEXT -280 408 Left 2 !.step param R 10k 100k 10k
TEXT -392 1024 Left 2 !.MODEL J113 NJF(VTO=-1.2854 BETA=9.25964m BETATCE=-0.5 LAMBDA=3.03839E-2 RD=1.30170 RS=1.30170 CGS=1.05000E-11 CGD=1.20000E-11 PB=5.04493E-1 IS=9.86870E-16 XTI=3 AF=1 FC=0.5 N=1 NR=2 MFG=PHILIPS)
